/COM,===========================================================================
/COM,MATERIAL PROPERTIES
/COM,===========================================================================

/PREP7

/COM,---------------------------------------------------------------------------
/COM,LOWER BALL
/COM,---------------------------------------------------------------------------

*SET,material_lower,1
! Young's modulus
MP,EX,material_lower,young_modulus
! Poisson's ratio
MP,PRXY,material_lower,poisson_ratio

/COM,---------------------------------------------------------------------------
/COM,UPPER BALL
/COM,---------------------------------------------------------------------------

*SET,material_upper,2
! Young's modulus
MP,PRXY,material_upper,young_modulus
! Poisson's ratio
MP,PRXY,material_upper,poisson_ratio
